*SPEF "ieee 1481-1999"
*DESIGN "mcu"
*DATE "16:24:58 Thursday July 18, 2024"
*VENDOR "The OpenROAD Project"
*PROGRAM "OpenROAD"
*VERSION "d423155d69de7f683a23f6916ead418a615ad4ad"
*DESIGN_FLOW "NAME_SCOPE LOCAL" "PIN_CAP NONE"
*DIVIDER /
*DELIMITER :
*BUS_DELIMITER []
*T_UNIT 1 NS
*C_UNIT 1 PF
*R_UNIT 1 OHM
*L_UNIT 1 HENRY

*NAME_MAP
*3 clk
*4 cs
*5 in[0]
*6 in[10]
*7 in[11]
*8 in[12]
*9 in[13]
*10 in[14]
*11 in[15]
*12 in[1]
*13 in[2]
*14 in[3]
*15 in[4]
*16 in[5]
*17 in[6]
*18 in[7]
*19 in[8]
*20 in[9]
*21 io[0]
*22 io[1]
*23 io[2]
*24 io[3]
*25 net9
*26 net19
*27 net20
*28 net21
*29 net22
*30 net23
*31 net24
*32 net10
*33 net11
*34 net12
*35 net13
*36 net14
*37 net15
*38 net16
*39 net17
*40 net18
*41 rst
*42 rx
*43 net25
*44 sclk
*45 sda_io
*46 tx
*47 _000_
*48 _001_
*49 _002_
*50 _003_
*51 _004_
*52 _005_
*53 _006_
*54 _007_
*55 _008_
*56 _009_
*57 _010_
*58 _011_
*59 _012_
*60 _013_
*61 _014_
*62 _015_
*63 _016_
*64 _017_
*65 _018_
*66 _019_
*67 _020_
*68 _021_
*69 _022_
*70 _023_
*71 _024_
*72 _025_
*73 _026_
*74 _027_
*75 _028_
*76 _029_
*77 _030_
*78 _031_
*79 _032_
*80 _033_
*81 _034_
*82 _035_
*83 _036_
*84 _037_
*85 _038_
*86 _039_
*87 _040_
*88 _041_
*89 _042_
*90 _043_
*91 _044_
*92 _045_
*93 _046_
*94 _047_
*95 _048_
*96 _049_
*97 _050_
*98 _051_
*99 _052_
*100 _053_
*101 _054_
*102 _055_
*103 _056_
*104 _057_
*105 _058_
*106 _059_
*107 _060_
*108 _061_
*109 _062_
*110 _063_
*111 _064_
*112 _065_
*113 _066_
*114 _067_
*115 _068_
*116 _069_
*117 _070_
*118 _071_
*119 _072_
*120 _073_
*121 _074_
*122 _075_
*123 _076_
*124 _077_
*125 _078_
*126 _079_
*127 _080_
*128 _081_
*129 _082_
*130 _083_
*131 _084_
*132 _085_
*133 _086_
*134 _087_
*135 _088_
*136 _089_
*137 _090_
*138 _091_
*139 _092_
*140 _093_
*141 _094_
*142 _095_
*143 _096_
*144 _097_
*145 _098_
*146 _099_
*147 _100_
*148 _101_
*149 bus\.QSPI_master\.cntr_state_q\[0\]
*150 bus\.QSPI_master\.cntr_state_q\[1\]
*151 bus\.QSPI_master\.cntr_state_q\[2\]
*152 bus\.QSPI_master\.state_q\[0\]
*153 bus\.QSPI_master\.state_q_prv
*154 bus\.UART\.uart_core\.tx_clk_cntr\[0\]
*155 bus\.UART\.uart_core\.tx_clk_cntr\[10\]
*156 bus\.UART\.uart_core\.tx_clk_cntr\[11\]
*157 bus\.UART\.uart_core\.tx_clk_cntr\[12\]
*158 bus\.UART\.uart_core\.tx_clk_cntr\[13\]
*159 bus\.UART\.uart_core\.tx_clk_cntr\[14\]
*160 bus\.UART\.uart_core\.tx_clk_cntr\[15\]
*161 bus\.UART\.uart_core\.tx_clk_cntr\[1\]
*162 bus\.UART\.uart_core\.tx_clk_cntr\[2\]
*163 bus\.UART\.uart_core\.tx_clk_cntr\[3\]
*164 bus\.UART\.uart_core\.tx_clk_cntr\[4\]
*165 bus\.UART\.uart_core\.tx_clk_cntr\[5\]
*166 bus\.UART\.uart_core\.tx_clk_cntr\[6\]
*167 bus\.UART\.uart_core\.tx_clk_cntr\[7\]
*168 bus\.UART\.uart_core\.tx_clk_cntr\[8\]
*169 bus\.UART\.uart_core\.tx_clk_cntr\[9\]
*170 bus\.UART\.uart_core\.tx_cntr\[0\]
*171 bus\.UART\.uart_core\.tx_cntr\[1\]
*172 bus\.UART\.uart_core\.tx_cntr\[2\]
*173 bus\.UART\.uart_core\.tx_state\[0\]
*174 bus\.UART\.uart_core\.tx_state\[1\]
*175 bus\.UART\.uart_core\.tx_state_en
*176 clknet_0_clk
*177 clknet_2_0__leaf_clk
*178 clknet_2_1__leaf_clk
*179 clknet_2_2__leaf_clk
*180 clknet_2_3__leaf_clk
*181 net1
*182 net2
*183 net26
*184 net27
*185 net28
*186 net29
*187 net3
*188 net4
*189 net5
*190 net6
*191 net7
*192 net8
*193 FILLER_0_0_107
*194 FILLER_0_0_111
*195 FILLER_0_0_116
*196 FILLER_0_0_17
*197 FILLER_0_0_26
*198 FILLER_0_0_29
*199 FILLER_0_0_3
*200 FILLER_0_0_35
*201 FILLER_0_0_44
*202 FILLER_0_0_53
*203 FILLER_0_0_57
*204 FILLER_0_0_62
*205 FILLER_0_0_71
*206 FILLER_0_0_80
*207 FILLER_0_0_85
*208 FILLER_0_0_89
*209 FILLER_0_0_98
*210 FILLER_0_10_105
*211 FILLER_0_10_123
*212 FILLER_0_10_25
*213 FILLER_0_10_29
*214 FILLER_0_10_3
*215 FILLER_0_10_37
*216 FILLER_0_10_54
*217 FILLER_0_10_66
*218 FILLER_0_10_7
*219 FILLER_0_10_76
*220 FILLER_0_10_85
*221 FILLER_0_10_97
*222 FILLER_0_11_103
*223 FILLER_0_11_108
*224 FILLER_0_11_113
*225 FILLER_0_11_121
*226 FILLER_0_11_19
*227 FILLER_0_11_26
*228 FILLER_0_11_31
*229 FILLER_0_11_38
*230 FILLER_0_11_50
*231 FILLER_0_11_57
*232 FILLER_0_11_86
*233 FILLER_0_11_92
*234 FILLER_0_11_96
*235 FILLER_0_12_112
*236 FILLER_0_12_13
*237 FILLER_0_12_19
*238 FILLER_0_12_29
*239 FILLER_0_12_3
*240 FILLER_0_12_47
*241 FILLER_0_12_51
*242 FILLER_0_12_57
*243 FILLER_0_12_77
*244 FILLER_0_12_83
*245 FILLER_0_12_9
*246 FILLER_0_13_107
*247 FILLER_0_13_111
*248 FILLER_0_13_113
*249 FILLER_0_13_3
*250 FILLER_0_13_49
*251 FILLER_0_13_57
*252 FILLER_0_13_75
*253 FILLER_0_13_87
*254 FILLER_0_14_123
*255 FILLER_0_14_21
*256 FILLER_0_14_3
*257 FILLER_0_14_46
*258 FILLER_0_14_58
*259 FILLER_0_14_62
*260 FILLER_0_14_69
*261 FILLER_0_14_81
*262 FILLER_0_14_90
*263 FILLER_0_14_98
*264 FILLER_0_15_110
*265 FILLER_0_15_113
*266 FILLER_0_15_121
*267 FILLER_0_15_19
*268 FILLER_0_15_27
*269 FILLER_0_15_35
*270 FILLER_0_15_42
*271 FILLER_0_15_54
*272 FILLER_0_15_57
*273 FILLER_0_15_65
*274 FILLER_0_15_72
*275 FILLER_0_15_84
*276 FILLER_0_15_98
*277 FILLER_0_16_111
*278 FILLER_0_16_123
*279 FILLER_0_16_15
*280 FILLER_0_16_27
*281 FILLER_0_16_3
*282 FILLER_0_16_37
*283 FILLER_0_16_49
*284 FILLER_0_16_55
*285 FILLER_0_16_62
*286 FILLER_0_16_74
*287 FILLER_0_16_82
*288 FILLER_0_16_85
*289 FILLER_0_17_111
*290 FILLER_0_17_113
*291 FILLER_0_17_121
*292 FILLER_0_17_15
*293 FILLER_0_17_21
*294 FILLER_0_17_3
*295 FILLER_0_17_38
*296 FILLER_0_17_46
*297 FILLER_0_17_87
*298 FILLER_0_17_91
*299 FILLER_0_18_102
*300 FILLER_0_18_122
*301 FILLER_0_18_18
*302 FILLER_0_18_26
*303 FILLER_0_18_29
*304 FILLER_0_18_3
*305 FILLER_0_18_37
*306 FILLER_0_18_60
*307 FILLER_0_18_78
*308 FILLER_0_18_85
*309 FILLER_0_19_113
*310 FILLER_0_19_121
*311 FILLER_0_19_17
*312 FILLER_0_19_33
*313 FILLER_0_19_39
*314 FILLER_0_19_60
*315 FILLER_0_19_72
*316 FILLER_0_19_92
*317 FILLER_0_1_105
*318 FILLER_0_1_111
*319 FILLER_0_1_113
*320 FILLER_0_1_121
*321 FILLER_0_1_20
*322 FILLER_0_1_3
*323 FILLER_0_1_49
*324 FILLER_0_1_55
*325 FILLER_0_1_57
*326 FILLER_0_1_69
*327 FILLER_0_1_81
*328 FILLER_0_1_93
*329 FILLER_0_20_109
*330 FILLER_0_20_113
*331 FILLER_0_20_121
*332 FILLER_0_20_21
*333 FILLER_0_20_27
*334 FILLER_0_20_29
*335 FILLER_0_20_3
*336 FILLER_0_20_41
*337 FILLER_0_20_53
*338 FILLER_0_20_57
*339 FILLER_0_20_69
*340 FILLER_0_20_81
*341 FILLER_0_20_85
*342 FILLER_0_20_97
*343 FILLER_0_2_109
*344 FILLER_0_2_121
*345 FILLER_0_2_14
*346 FILLER_0_2_26
*347 FILLER_0_2_29
*348 FILLER_0_2_3
*349 FILLER_0_2_56
*350 FILLER_0_2_68
*351 FILLER_0_2_80
*352 FILLER_0_2_85
*353 FILLER_0_2_97
*354 FILLER_0_3_106
*355 FILLER_0_3_113
*356 FILLER_0_3_121
*357 FILLER_0_3_15
*358 FILLER_0_3_27
*359 FILLER_0_3_3
*360 FILLER_0_3_33
*361 FILLER_0_3_54
*362 FILLER_0_3_57
*363 FILLER_0_3_65
*364 FILLER_0_3_82
*365 FILLER_0_3_94
*366 FILLER_0_4_109
*367 FILLER_0_4_121
*368 FILLER_0_4_25
*369 FILLER_0_4_29
*370 FILLER_0_4_3
*371 FILLER_0_4_35
*372 FILLER_0_4_50
*373 FILLER_0_4_62
*374 FILLER_0_4_74
*375 FILLER_0_4_82
*376 FILLER_0_4_85
*377 FILLER_0_4_9
*378 FILLER_0_4_97
*379 FILLER_0_5_105
*380 FILLER_0_5_111
*381 FILLER_0_5_113
*382 FILLER_0_5_121
*383 FILLER_0_5_15
*384 FILLER_0_5_19
*385 FILLER_0_5_26
*386 FILLER_0_5_3
*387 FILLER_0_5_34
*388 FILLER_0_5_57
*389 FILLER_0_5_69
*390 FILLER_0_5_81
*391 FILLER_0_6_104
*392 FILLER_0_6_123
*393 FILLER_0_6_25
*394 FILLER_0_6_52
*395 FILLER_0_6_60
*396 FILLER_0_6_82
*397 FILLER_0_6_85
*398 FILLER_0_7_117
*399 FILLER_0_7_19
*400 FILLER_0_7_31
*401 FILLER_0_7_35
*402 FILLER_0_7_52
*403 FILLER_0_8_122
*404 FILLER_0_8_15
*405 FILLER_0_8_27
*406 FILLER_0_8_29
*407 FILLER_0_8_3
*408 FILLER_0_8_35
*409 FILLER_0_8_45
*410 FILLER_0_8_57
*411 FILLER_0_8_79
*412 FILLER_0_8_83
*413 FILLER_0_8_85
*414 FILLER_0_9_11
*415 FILLER_0_9_111
*416 FILLER_0_9_113
*417 FILLER_0_9_121
*418 FILLER_0_9_22
*419 FILLER_0_9_3
*420 FILLER_0_9_34
*421 FILLER_0_9_46
*422 FILLER_0_9_54
*423 FILLER_0_9_57
*424 FILLER_0_9_69
*425 FILLER_0_9_81
*426 PHY_EDGE_ROW_0_Left_21
*427 PHY_EDGE_ROW_0_Right_0
*428 PHY_EDGE_ROW_10_Left_31
*429 PHY_EDGE_ROW_10_Right_10
*430 PHY_EDGE_ROW_11_Left_32
*431 PHY_EDGE_ROW_11_Right_11
*432 PHY_EDGE_ROW_12_Left_33
*433 PHY_EDGE_ROW_12_Right_12
*434 PHY_EDGE_ROW_13_Left_34
*435 PHY_EDGE_ROW_13_Right_13
*436 PHY_EDGE_ROW_14_Left_35
*437 PHY_EDGE_ROW_14_Right_14
*438 PHY_EDGE_ROW_15_Left_36
*439 PHY_EDGE_ROW_15_Right_15
*440 PHY_EDGE_ROW_16_Left_37
*441 PHY_EDGE_ROW_16_Right_16
*442 PHY_EDGE_ROW_17_Left_38
*443 PHY_EDGE_ROW_17_Right_17
*444 PHY_EDGE_ROW_18_Left_39
*445 PHY_EDGE_ROW_18_Right_18
*446 PHY_EDGE_ROW_19_Left_40
*447 PHY_EDGE_ROW_19_Right_19
*448 PHY_EDGE_ROW_1_Left_22
*449 PHY_EDGE_ROW_1_Right_1
*450 PHY_EDGE_ROW_20_Left_41
*451 PHY_EDGE_ROW_20_Right_20
*452 PHY_EDGE_ROW_2_Left_23
*453 PHY_EDGE_ROW_2_Right_2
*454 PHY_EDGE_ROW_3_Left_24
*455 PHY_EDGE_ROW_3_Right_3
*456 PHY_EDGE_ROW_4_Left_25
*457 PHY_EDGE_ROW_4_Right_4
*458 PHY_EDGE_ROW_5_Left_26
*459 PHY_EDGE_ROW_5_Right_5
*460 PHY_EDGE_ROW_6_Left_27
*461 PHY_EDGE_ROW_6_Right_6
*462 PHY_EDGE_ROW_7_Left_28
*463 PHY_EDGE_ROW_7_Right_7
*464 PHY_EDGE_ROW_8_Left_29
*465 PHY_EDGE_ROW_8_Right_8
*466 PHY_EDGE_ROW_9_Left_30
*467 PHY_EDGE_ROW_9_Right_9
*468 TAP_TAPCELL_ROW_0_42
*469 TAP_TAPCELL_ROW_0_43
*470 TAP_TAPCELL_ROW_0_44
*471 TAP_TAPCELL_ROW_0_45
*472 TAP_TAPCELL_ROW_10_64
*473 TAP_TAPCELL_ROW_10_65
*474 TAP_TAPCELL_ROW_11_66
*475 TAP_TAPCELL_ROW_11_67
*476 TAP_TAPCELL_ROW_12_68
*477 TAP_TAPCELL_ROW_12_69
*478 TAP_TAPCELL_ROW_13_70
*479 TAP_TAPCELL_ROW_13_71
*480 TAP_TAPCELL_ROW_14_72
*481 TAP_TAPCELL_ROW_14_73
*482 TAP_TAPCELL_ROW_15_74
*483 TAP_TAPCELL_ROW_15_75
*484 TAP_TAPCELL_ROW_16_76
*485 TAP_TAPCELL_ROW_16_77
*486 TAP_TAPCELL_ROW_17_78
*487 TAP_TAPCELL_ROW_17_79
*488 TAP_TAPCELL_ROW_18_80
*489 TAP_TAPCELL_ROW_18_81
*490 TAP_TAPCELL_ROW_19_82
*491 TAP_TAPCELL_ROW_19_83
*492 TAP_TAPCELL_ROW_1_46
*493 TAP_TAPCELL_ROW_1_47
*494 TAP_TAPCELL_ROW_20_84
*495 TAP_TAPCELL_ROW_20_85
*496 TAP_TAPCELL_ROW_20_86
*497 TAP_TAPCELL_ROW_20_87
*498 TAP_TAPCELL_ROW_2_48
*499 TAP_TAPCELL_ROW_2_49
*500 TAP_TAPCELL_ROW_3_50
*501 TAP_TAPCELL_ROW_3_51
*502 TAP_TAPCELL_ROW_4_52
*503 TAP_TAPCELL_ROW_4_53
*504 TAP_TAPCELL_ROW_5_54
*505 TAP_TAPCELL_ROW_5_55
*506 TAP_TAPCELL_ROW_6_56
*507 TAP_TAPCELL_ROW_6_57
*508 TAP_TAPCELL_ROW_7_58
*509 TAP_TAPCELL_ROW_7_59
*510 TAP_TAPCELL_ROW_8_60
*511 TAP_TAPCELL_ROW_8_61
*512 TAP_TAPCELL_ROW_9_62
*513 TAP_TAPCELL_ROW_9_63
*514 _110_
*515 _111_
*516 _112_
*517 _113_
*518 _114_
*519 _115_
*520 _116_
*521 _117_
*522 _118_
*523 _119_
*524 _120_
*525 _121_
*526 _122_
*527 _123_
*528 _124_
*529 _125_
*530 _126_
*531 _127_
*532 _128_
*533 _129_
*534 _130_
*535 _131_
*536 _132_
*537 _133_
*538 _134_
*539 _135_
*540 _136_
*541 _137_
*542 _138_
*543 _139_
*544 _140_
*545 _141_
*546 _142_
*547 _143_
*548 _144_
*549 _145_
*550 _146_
*551 _147_
*552 _148_
*553 _149_
*554 _150_
*555 _151_
*556 _152_
*557 _153_
*558 _154_
*559 _155_
*560 _156_
*561 _157_
*562 _158_
*563 _159_
*564 _160_
*565 _161_
*566 _162_
*567 _163_
*568 _164_
*569 _165_
*570 _166_
*571 _167_
*572 _168_
*573 _169_
*574 _170_
*575 _171_
*576 _172_
*577 _173_
*578 _174_
*579 _175_
*580 _176_
*581 _177_
*582 _178_
*583 _179_
*584 _180_
*585 _181_
*586 _182_
*587 _183_
*588 _184_
*589 _185_
*590 _186_
*591 _187_
*592 _188_
*593 _189_
*594 _190_
*595 _191_
*596 _192_
*597 _193_
*598 _194_
*599 _195_
*600 _196_
*601 _197_
*602 _198_
*603 _199_
*604 _200_
*605 _201_
*606 _202_
*607 _203_
*608 _204_
*609 _205_
*610 _206_
*611 _207_
*612 _208_
*613 _209_
*614 _210_
*615 _211_
*616 _212_
*617 _213_
*618 _214_
*619 _215_
*620 _216_
*621 _217_
*622 _218_
*623 _219_
*624 _220_
*625 _221_
*626 _222_
*627 _223_
*628 _224_
*629 _225_
*630 _226_
*631 _227_
*632 _228_
*633 _229_
*634 _230_
*635 _231_
*636 _232_
*637 _233_
*638 _234_
*639 _235_
*640 _236_
*641 _237_
*642 _238_
*643 _239_
*644 _240_
*645 _241_
*646 _267_
*647 _267__29
*648 _267__5
*649 _268_
*650 _268__26
*651 _268__6
*652 _269_
*653 _269__27
*654 _269__7
*655 _270_
*656 _270__28
*657 _270__8
*658 clkbuf_0_clk
*659 clkbuf_2_0__f_clk
*660 clkbuf_2_1__f_clk
*661 clkbuf_2_2__f_clk
*662 clkbuf_2_3__f_clk
*663 input1
*664 mcu_10
*665 mcu_11
*666 mcu_12
*667 mcu_13
*668 mcu_14
*669 mcu_15
*670 mcu_16
*671 mcu_17
*672 mcu_18
*673 mcu_19
*674 mcu_20
*675 mcu_21
*676 mcu_22
*677 mcu_23
*678 mcu_24
*679 mcu_25
*680 mcu_9
*681 output2
*682 output3
*683 output4

*PORTS
clk I
cs O
in[0] I
in[10] I
in[11] I
in[12] I
in[13] I
in[14] I
in[15] I
in[1] I
in[2] I
in[3] I
in[4] I
in[5] I
in[6] I
in[7] I
in[8] I
in[9] I
io[0] I
io[1] I
io[2] I
io[3] I
out[0] O
out[10] O
out[11] O
out[12] O
out[13] O
out[14] O
out[15] O
out[1] O
out[2] O
out[3] O
out[4] O
out[5] O
out[6] O
out[7] O
out[8] O
out[9] O
rst I
rx I
scl_io O
sclk O
sda_io I
tx O

*D_NET *3 0.00715899
*CONN
*P clk I
*I *658:A I *D sky130_fd_sc_hd__clkbuf_16
*CAP
1 clk 0.00297768
2 *658:A 0.000244557
3 *3:17 0.00322224
4 *658:A *527:A 0.000146822
5 *658:A *554:A 5.3304e-05
6 *658:A *136:8 0.000102389
7 *3:17 *128:8 0
8 *3:17 *131:12 0.000411998
9 *3:17 *168:10 0
10 *3:17 *176:49 0
*RES
1 clk *3:17 36.8571 
2 *3:17 *658:A 42.9093 
*END

*D_NET *4 0.000651559
*CONN
*P cs O
*I *681:X O *D sky130_fd_sc_hd__buf_1
*CAP
1 cs 0.000317238
2 *681:X 0.000317238
3 cs *182:10 1.70831e-05
*RES
1 *681:X cs 48.3188 
*END

*D_NET *21 0.00209565
*CONN
*P io[0] I
*I *646:Z O *D sky130_fd_sc_hd__ebufn_1
*CAP
1 io[0] 0.000677197
2 *646:Z 0.000354485
3 *21:8 0.00103168
4 io[0] io[1] 0
5 *21:8 *646:A 3.22879e-05
*RES
1 *646:Z *21:8 43.3857 
2 *21:8 io[0] 15.0386 
*END

*D_NET *22 0.00119901
*CONN
*P io[1] I
*I *649:Z O *D sky130_fd_sc_hd__ebufn_1
*CAP
1 io[1] 0.000583359
2 *649:Z 0.000583359
3 io[1] io[2] 0
4 io[1] *649:A 3.22879e-05
5 io[0] io[1] 0
*RES
1 *649:Z io[1] 49.455 
*END

*D_NET *23 0.0015707
*CONN
*P io[2] I
*I *652:Z O *D sky130_fd_sc_hd__ebufn_1
*CAP
1 io[2] 0.000755572
2 *652:Z 0
3 *23:6 0.000755572
4 io[2] io[3] 0
5 io[2] *24:12 5.95572e-05
6 io[1] io[2] 0
*RES
1 *652:Z *23:6 38 
2 *23:6 io[2] 17.0479 
*END

*D_NET *24 0.00191422
*CONN
*P io[3] I
*I *655:Z O *D sky130_fd_sc_hd__ebufn_1
*CAP
1 io[3] 0.000509981
2 *655:Z 0.00039473
3 *24:12 0.000904711
4 io[3] tx 2.33476e-05
5 *24:12 *655:A 2.18926e-05
6 io[2] io[3] 0
7 io[2] *24:12 5.95572e-05
*RES
1 *655:Z *24:12 44.3075 
2 *24:12 io[3] 10.6368 
*END

*D_NET *25 0.001772
*CONN
*P out[0] O
*I *680:LO O *D sky130_fd_sc_hd__conb_1
*CAP
1 out[0] 0.000412317
2 *680:LO 0.00033799
3 *25:8 0.000750307
4 out[0] out[1] 0
5 out[0] *44:10 6.10551e-06
6 *25:8 out[1] 5.50106e-05
7 *25:8 *682:A 5.79559e-05
8 *25:8 *44:10 0.000152315
*RES
1 *680:LO *25:8 45.7679 
2 *25:8 out[0] 9.05214 
*END

*D_NET *26 0.00100262
*CONN
*P out[10] O
*I *673:LO O *D sky130_fd_sc_hd__conb_1
*CAP
1 out[10] 0.000501308
2 *673:LO 0.000501308
3 out[10] out[11] 0
4 out[10] out[9] 0
*RES
1 *673:LO out[10] 48.5643 
*END

*D_NET *27 0.00090292
*CONN
*P out[11] O
*I *674:LO O *D sky130_fd_sc_hd__conb_1
*CAP
1 out[11] 0.00045146
2 *674:LO 0.00045146
3 out[11] out[12] 0
4 out[10] out[11] 0
*RES
1 *674:LO out[11] 47.3214 
*END

*D_NET *28 0.000901682
*CONN
*P out[12] O
*I *675:LO O *D sky130_fd_sc_hd__conb_1
*CAP
1 out[12] 0.000450841
2 *675:LO 0.000450841
3 out[12] out[13] 0
4 out[11] out[12] 0
*RES
1 *675:LO out[12] 47.3214 
*END

*D_NET *29 0.000901682
*CONN
*P out[13] O
*I *676:LO O *D sky130_fd_sc_hd__conb_1
*CAP
1 out[13] 0.000450841
2 *676:LO 0.000450841
3 out[13] out[14] 0
4 out[12] out[13] 0
*RES
1 *676:LO out[13] 47.3214 
*END

*D_NET *30 0.000809703
*CONN
*P out[14] O
*I *677:LO O *D sky130_fd_sc_hd__conb_1
*CAP
1 out[14] 0.000404852
2 *677:LO 0.000404852
3 out[14] out[15] 0
4 out[13] out[14] 0
*RES
1 *677:LO out[14] 46.7 
*END

*D_NET *31 0.00136686
*CONN
*P out[15] O
*I *678:LO O *D sky130_fd_sc_hd__conb_1
*CAP
1 out[15] 0.00041375
2 *678:LO 0.000269679
3 *31:8 0.000683429
4 out[14] out[15] 0
*RES
1 *678:LO *31:8 42.9093 
2 *31:8 out[15] 9.05214 
*END

*D_NET *32 0.000938087
*CONN
*P out[1] O
*I *664:LO O *D sky130_fd_sc_hd__conb_1
*CAP
1 out[1] 0.000426846
2 *664:LO 0.000426846
3 out[1] out[2] 0
4 out[1] *44:10 2.93845e-05
5 out[0] out[1] 0
6 *25:8 out[1] 5.50106e-05
*RES
1 *664:LO out[1] 47.3214 
*END

*D_NET *33 0.000952679
*CONN
*P out[2] O
*I *665:LO O *D sky130_fd_sc_hd__conb_1
*CAP
1 out[2] 0.000448834
2 *665:LO 0.000448834
3 out[2] out[3] 0
4 out[2] *682:A 5.50106e-05
5 out[1] out[2] 0
*RES
1 *665:LO out[2] 47.3214 
*END

*D_NET *34 0.00090292
*CONN
*P out[3] O
*I *666:LO O *D sky130_fd_sc_hd__conb_1
*CAP
1 out[3] 0.00045146
2 *666:LO 0.00045146
3 out[3] out[4] 0
4 out[2] out[3] 0
*RES
1 *666:LO out[3] 47.3214 
*END

*D_NET *35 0.000901682
*CONN
*P out[4] O
*I *667:LO O *D sky130_fd_sc_hd__conb_1
*CAP
1 out[4] 0.000450841
2 *667:LO 0.000450841
3 out[4] out[5] 0
4 out[3] out[4] 0
*RES
1 *667:LO out[4] 47.3214 
*END

*D_NET *36 0.000901682
*CONN
*P out[5] O
*I *668:LO O *D sky130_fd_sc_hd__conb_1
*CAP
1 out[5] 0.000450841
2 *668:LO 0.000450841
3 out[5] out[6] 0
4 out[4] out[5] 0
*RES
1 *668:LO out[5] 47.3214 
*END

*D_NET *37 0.000901682
*CONN
*P out[6] O
*I *669:LO O *D sky130_fd_sc_hd__conb_1
*CAP
1 out[6] 0.000450841
2 *669:LO 0.000450841
3 out[6] out[7] 0
4 out[5] out[6] 0
*RES
1 *669:LO out[6] 47.3214 
*END

*D_NET *38 0.000901682
*CONN
*P out[7] O
*I *670:LO O *D sky130_fd_sc_hd__conb_1
*CAP
1 out[7] 0.000450841
2 *670:LO 0.000450841
3 out[7] out[8] 0
4 out[6] out[7] 0
*RES
1 *670:LO out[7] 47.3214 
*END

*D_NET *39 0.000901682
*CONN
*P out[8] O
*I *671:LO O *D sky130_fd_sc_hd__conb_1
*CAP
1 out[8] 0.000450841
2 *671:LO 0.000450841
3 out[8] out[9] 0
4 out[7] out[8] 0
*RES
1 *671:LO out[8] 47.3214 
*END

*D_NET *40 0.00090274
*CONN
*P out[9] O
*I *672:LO O *D sky130_fd_sc_hd__conb_1
*CAP
1 out[9] 0.00045137
2 *672:LO 0.00045137
3 out[10] out[9] 0
4 out[8] out[9] 0
*RES
1 *672:LO out[9] 47.3214 
*END

*D_NET *41 0.000613776
*CONN
*P rst I
*I *663:A I *D sky130_fd_sc_hd__dlymetal6s2s_1
*CAP
1 rst 0.000306888
2 *663:A 0.000306888
*RES
1 rst *663:A 48.4016 
*END

*D_NET *43 0.000443363
*CONN
*P scl_io O
*I *679:LO O *D sky130_fd_sc_hd__conb_1
*CAP
1 scl_io 0.00021531
2 *679:LO 0.00021531
3 scl_io *155:10 1.27424e-05
*RES
1 *679:LO scl_io 46.9931 
*END

*D_NET *44 0.00107267
*CONN
*P sclk O
*I *682:X O *D sky130_fd_sc_hd__buf_1
*CAP
1 sclk 0.000119991
2 *682:X 0.000322442
3 *44:10 0.000442433
4 out[0] *44:10 6.10551e-06
5 out[1] *44:10 2.93845e-05
6 *25:8 *44:10 0.000152315
*RES
1 *682:X *44:10 43.2304 
2 *44:10 sclk 8.32853 
*END

*D_NET *46 0.00200704
*CONN
*P tx O
*I *683:X O *D sky130_fd_sc_hd__buf_1
*CAP
1 tx 0.000991844
2 *683:X 0.000991844
3 io[3] tx 2.33476e-05
*RES
1 *683:X tx 48.7328 
*END

*D_NET *47 0.00128064
*CONN
*I *617:D I *D sky130_fd_sc_hd__dfxtp_1
*I *525:X O *D sky130_fd_sc_hd__clkbuf_1
*CAP
1 *617:D 0
2 *525:X 0.00029257
3 *47:8 0.00029257
4 *47:8 *525:A 0.000323904
5 *47:8 *133:8 0.000226062
6 *47:8 *181:20 0.000145537
*RES
1 *525:X *47:8 29.8823 
2 *47:8 *617:D 23 
*END

*D_NET *48 0.000947716
*CONN
*I *618:D I *D sky130_fd_sc_hd__dfxtp_1
*I *529:Y O *D sky130_fd_sc_hd__nor2_1
*CAP
1 *618:D 0.000111007
2 *529:Y 0.000162134
3 *48:10 0.00027314
4 *618:D *553:B 2.2629e-05
5 *618:D *176:64 0.000182222
6 *48:10 *526:A 9.86777e-06
7 *48:10 *526:B 6.12479e-05
8 *48:10 *136:46 5.5792e-05
9 *48:10 *137:10 6.35028e-05
10 *48:10 *137:14 6.17437e-06
*RES
1 *529:Y *48:10 41.0036 
2 *48:10 *618:D 40.5737 
*END

*D_NET *49 0.000640239
*CONN
*I *619:D I *D sky130_fd_sc_hd__dfxtp_1
*I *532:Y O *D sky130_fd_sc_hd__a21oi_1
*CAP
1 *619:D 0.000130787
2 *532:Y 0.000189333
3 *49:8 0.00032012
4 *49:8 *161:12 0
5 *49:8 *162:10 0
6 *49:8 *162:12 0
7 *49:8 *188:14 0
*RES
1 *532:Y *49:8 40.9621 
2 *49:8 *619:D 40.0973 
*END

*D_NET *50 0.000877795
*CONN
*I *620:D I *D sky130_fd_sc_hd__dfxtp_1
*I *536:X O *D sky130_fd_sc_hd__clkbuf_1
*CAP
1 *620:D 0
2 *536:X 0.00041906
3 *50:8 0.00041906
4 *50:8 *536:A 1.24376e-05
5 *50:8 *162:10 2.7237e-05
*RES
1 *536:X *50:8 30.3587 
2 *50:8 *620:D 23 
*END

*D_NET *51 0.000589508
*CONN
*I *621:D I *D sky130_fd_sc_hd__dfxtp_1
*I *539:X O *D sky130_fd_sc_hd__o211a_1
*CAP
1 *621:D 7.17495e-06
2 *539:X 0.000152881
3 *51:10 0.000160056
4 *621:D *163:38 1.64354e-05
5 *621:D *180:33 1.64354e-05
6 *51:10 *539:A2 3.29613e-05
7 *51:10 *622:CLK 1.12863e-05
8 *51:10 *163:38 8.29264e-05
9 *51:10 *180:35 0.000109352
*RES
1 *539:X *51:10 40.6514 
2 *51:10 *621:D 38.1916 
*END

*D_NET *52 0.000505453
*CONN
*I *622:D I *D sky130_fd_sc_hd__dfxtp_1
*I *541:Y O *D sky130_fd_sc_hd__a21oi_1
*CAP
1 *622:D 0.000121383
2 *541:Y 0.000131343
3 *52:8 0.000252726
*RES
1 *541:Y *52:8 40.2579 
2 *52:8 *622:D 40.0973 
*END

*D_NET *53 0.000290428
*CONN
*I *623:D I *D sky130_fd_sc_hd__dfxtp_1
*I *545:X O *D sky130_fd_sc_hd__clkbuf_1
*CAP
1 *623:D 1.58638e-05
2 *545:X 0.000105161
3 *53:8 0.000121025
4 *53:8 *165:10 0
5 *53:8 *180:79 4.83778e-05
*RES
1 *545:X *53:8 40.2579 
2 *53:8 *623:D 38.1916 
*END

*D_NET *54 0.000249784
*CONN
*I *624:D I *D sky130_fd_sc_hd__dfxtp_1
*I *548:Y O *D sky130_fd_sc_hd__nor2_1
*CAP
1 *624:D 1.11712e-05
2 *548:Y 0.000105503
3 *54:8 0.000116674
4 *624:D *166:10 1.64354e-05
5 *54:8 *180:21 0
*RES
1 *548:Y *54:8 39.5536 
2 *54:8 *624:D 38.1916 
*END

*D_NET *55 0.000708545
*CONN
*I *625:D I *D sky130_fd_sc_hd__dfxtp_1
*I *550:Y O *D sky130_fd_sc_hd__a21oi_1
*CAP
1 *625:D 0
2 *550:Y 0.000166144
3 *55:12 0.000166144
4 *55:12 *550:B1 1.3523e-05
5 *55:12 *625:CLK 5.89081e-05
6 *55:12 *76:23 3.21299e-05
7 *55:12 *167:6 0.000214338
8 *55:12 *167:8 3.55402e-05
9 *55:12 *167:12 2.1819e-05
*RES
1 *550:Y *55:12 27.8109 
2 *55:12 *625:D 23 
*END

*D_NET *56 0.000431586
*CONN
*I *626:D I *D sky130_fd_sc_hd__dfxtp_1
*I *554:X O *D sky130_fd_sc_hd__clkbuf_1
*CAP
1 *626:D 1.55997e-05
2 *554:X 8.50659e-05
3 *56:8 0.000100666
4 *626:D *523:A 5.92579e-05
5 *626:D *179:59 6.01634e-05
6 *56:8 *81:10 0.000110834
*RES
1 *554:X *56:8 39.5536 
2 *56:8 *626:D 38.668 
*END

*D_NET *57 0.00067278
*CONN
*I *627:D I *D sky130_fd_sc_hd__dfxtp_1
*I *557:Y O *D sky130_fd_sc_hd__nor2_1
*CAP
1 *627:D 7.19391e-05
2 *557:Y 0.000106947
3 *57:10 0.000178886
4 *57:10 *557:B 2.93747e-05
5 *57:10 *82:12 5.33753e-05
6 *57:10 *138:63 0.000195248
7 *57:10 *179:49 3.70094e-05
*RES
1 *557:Y *57:10 41.2314 
2 *57:10 *627:D 38.9943 
*END

*D_NET *58 0.000590082
*CONN
*I *628:D I *D sky130_fd_sc_hd__dfxtp_1
*I *559:Y O *D sky130_fd_sc_hd__a21oi_1
*CAP
1 *628:D 0.000168842
2 *559:Y 0.000126199
3 *58:8 0.000295041
4 *58:8 *628:CLK 0
5 *58:8 *155:10 0
*RES
1 *559:Y *58:8 40.2579 
2 *58:8 *628:D 41.0502 
*END

*D_NET *59 0.0011614
*CONN
*I *629:D I *D sky130_fd_sc_hd__dfxtp_1
*I *563:X O *D sky130_fd_sc_hd__clkbuf_1
*CAP
1 *629:D 0.000252143
2 *563:X 4.5651e-05
3 *59:8 0.000297794
4 *629:D *521:A 0
5 *629:D *521:B 6.96232e-05
6 *629:D *566:B1 5.3304e-05
7 *629:D *90:10 5.3304e-05
8 *629:D *179:25 0.000129902
9 *59:8 *566:B1 0.00014411
10 *59:8 *88:10 2.70469e-05
11 *59:8 *131:12 8.85189e-05
*RES
1 *563:X *59:8 39.9057 
2 *59:8 *629:D 43.6136 
*END

*D_NET *60 0.000525724
*CONN
*I *630:D I *D sky130_fd_sc_hd__dfxtp_1
*I *567:Y O *D sky130_fd_sc_hd__nor2_1
*CAP
1 *630:D 8.45249e-06
2 *567:Y 0.00019438
3 *60:14 0.000202833
4 *630:D *179:35 1.64354e-05
5 *60:14 *89:8 5.50049e-05
6 *60:14 *157:10 4.08537e-05
7 *60:14 *179:35 7.76364e-06
*RES
1 *567:Y *60:14 41.2936 
2 *60:14 *630:D 38.1916 
*END

*D_NET *61 0.000603878
*CONN
*I *631:D I *D sky130_fd_sc_hd__dfxtp_1
*I *569:X O *D sky130_fd_sc_hd__o21a_1
*CAP
1 *631:D 6.93208e-05
2 *569:X 0.00023051
3 *61:8 0.000299831
4 *61:8 *89:32 4.21594e-06
5 *61:8 *158:10 0
*RES
1 *569:X *61:8 42.3707 
2 *61:8 *631:D 39.1445 
*END

*D_NET *62 0.000860404
*CONN
*I *632:D I *D sky130_fd_sc_hd__dfxtp_1
*I *573:X O *D sky130_fd_sc_hd__clkbuf_1
*CAP
1 *632:D 6.33428e-05
2 *573:X 0.000150539
3 *62:8 0.000213881
4 *62:8 *93:24 0.000225265
5 *62:8 *94:10 4.08537e-05
6 *62:8 *159:10 0
7 *62:8 *177:120 0.000166522
*RES
1 *573:X *62:8 42.3707 
2 *62:8 *632:D 38.9373 
*END

*D_NET *63 0.000526208
*CONN
*I *633:D I *D sky130_fd_sc_hd__dfxtp_1
*I *576:Y O *D sky130_fd_sc_hd__a21oi_1
*CAP
1 *633:D 0.000103399
2 *576:Y 6.91849e-05
3 *63:8 0.000172584
4 *633:D *93:24 8.15899e-06
5 *63:8 *93:24 5.61311e-05
6 *63:8 *96:14 8.85189e-05
7 *63:8 *159:12 2.82307e-05
*RES
1 *576:Y *63:8 40.2579 
2 *63:8 *633:D 39.6209 
*END

*D_NET *64 0.000583652
*CONN
*I *634:D I *D sky130_fd_sc_hd__dfxtp_1
*I *582:X O *D sky130_fd_sc_hd__clkbuf_1
*CAP
1 *634:D 7.26543e-05
2 *582:X 0.000122442
3 *64:8 0.000195096
4 *634:D *634:CLK 0.00019346
*RES
1 *582:X *64:8 39.9057 
2 *64:8 *634:D 40.0973 
*END

*D_NET *65 0.00149528
*CONN
*I *635:D I *D sky130_fd_sc_hd__dfxtp_1
*I *585:X O *D sky130_fd_sc_hd__a211o_1
*CAP
1 *635:D 0
2 *585:X 0.000336969
3 *65:6 0.000336969
4 *65:6 *589:A 5.99746e-05
5 *65:6 *635:CLK 0.000282548
6 *65:6 *177:64 0.000478823
*RES
1 *585:X *65:6 31.2909 
2 *65:6 *635:D 23 
*END

*D_NET *66 0.00124836
*CONN
*I *636:D I *D sky130_fd_sc_hd__dfxtp_1
*I *588:X O *D sky130_fd_sc_hd__o211a_1
*CAP
1 *636:D 1.26271e-05
2 *588:X 0.000284331
3 *66:10 0.000296958
4 *636:D *636:CLK 1.64354e-05
5 *66:10 *588:A1 9.98069e-06
6 *66:10 *105:49 0.000330135
7 *66:10 *122:8 0.000189848
8 *66:10 *151:12 0.000108046
*RES
1 *588:X *66:10 44.8979 
2 *66:10 *636:D 38.1916 
*END

*D_NET *67 0.000728081
*CONN
*I *637:D I *D sky130_fd_sc_hd__dfxtp_1
*I *589:Y O *D sky130_fd_sc_hd__nand2_1
*CAP
1 *637:D 0.000228237
2 *589:Y 0.000115376
3 *67:8 0.000343614
4 *67:8 *182:10 4.08537e-05
*RES
1 *589:Y *67:8 40.2579 
2 *67:8 *637:D 42.003 
*END

*D_NET *68 0.000493829
*CONN
*I *638:D I *D sky130_fd_sc_hd__dfxtp_2
*I *596:X O *D sky130_fd_sc_hd__clkbuf_1
*CAP
1 *638:D 7.52291e-05
2 *596:X 9.72652e-05
3 *68:8 0.000172494
4 *638:D *178:12 0.00014884
5 *68:8 *109:10 0
*RES
1 *596:X *68:8 39.5536 
2 *68:8 *638:D 39.6209 
*END

*D_NET *69 0.000613193
*CONN
*I *639:D I *D sky130_fd_sc_hd__dfxtp_1
*I *599:Y O *D sky130_fd_sc_hd__a21oi_1
*CAP
1 *639:D 5.81553e-05
2 *599:Y 0.000199202
3 *69:10 0.000257357
4 *69:10 *173:29 9.84794e-05
5 *69:10 *178:10 0
6 *69:10 *181:45 0
*RES
1 *599:Y *69:10 41.3557 
2 *69:10 *639:D 38.9943 
*END

*D_NET *70 0.000528681
*CONN
*I *640:D I *D sky130_fd_sc_hd__dfxtp_1
*I *603:X O *D sky130_fd_sc_hd__o21ba_1
*CAP
1 *640:D 9.09197e-05
2 *603:X 0.000136339
3 *70:8 0.000227258
4 *640:D *640:CLK 7.41637e-05
5 *70:8 *178:48 0
6 *70:8 *178:65 0
*RES
1 *603:X *70:8 40.2579 
2 *70:8 *640:D 40.0973 
*END

*D_NET *71 0.000760286
*CONN
*I *641:D I *D sky130_fd_sc_hd__dfxtp_1
*I *607:X O *D sky130_fd_sc_hd__o21a_1
*CAP
1 *641:D 0.000253914
2 *607:X 0.000126229
3 *71:8 0.000380143
4 *71:8 *116:12 0
5 *71:8 *171:10 0
*RES
1 *607:X *71:8 40.2579 
2 *71:8 *641:D 42.4795 
*END

*D_NET *72 0.000443069
*CONN
*I *642:D I *D sky130_fd_sc_hd__dfxtp_1
*I *610:X O *D sky130_fd_sc_hd__clkbuf_1
*CAP
1 *642:D 0.000129153
2 *610:X 9.23819e-05
3 *72:8 0.000221534
4 *72:8 *641:CLK 0
*RES
1 *610:X *72:8 39.5536 
2 *72:8 *642:D 40.0973 
*END

*D_NET *73 0.000296261
*CONN
*I *643:D I *D sky130_fd_sc_hd__dfxtp_1
*I *612:X O *D sky130_fd_sc_hd__a21o_1
*CAP
1 *643:D 1.36537e-05
2 *612:X 4.96246e-05
3 *73:8 6.32783e-05
4 *73:8 *612:B1 5.56306e-05
5 *73:8 *100:25 0.000114074
*RES
1 *612:X *73:8 39.5536 
2 *73:8 *643:D 38.1916 
*END

*D_NET *74 0.000712993
*CONN
*I *644:D I *D sky130_fd_sc_hd__dfxtp_1
*I *614:Y O *D sky130_fd_sc_hd__nand3b_1
*CAP
1 *644:D 5.6414e-05
2 *614:Y 0.000142868
3 *74:8 0.000199282
4 *74:8 *102:57 4.50022e-05
5 *74:8 *105:29 5.75756e-06
6 *74:8 *177:10 5.91105e-05
7 *74:8 *177:12 0.000193178
8 *74:8 *177:18 1.13812e-05
*RES
1 *614:Y *74:8 41.3143 
2 *74:8 *644:D 38.9943 
*END

*D_NET *75 0.00039533
*CONN
*I *645:D I *D sky130_fd_sc_hd__dfxtp_1
*I *616:X O *D sky130_fd_sc_hd__a21bo_1
*CAP
1 *645:D 8.45249e-06
2 *616:X 0.000180995
3 *75:10 0.000189447
4 *645:D *177:18 1.64354e-05
*RES
1 *616:X *75:10 40.5271 
2 *75:10 *645:D 38.1916 
*END

*D_NET *76 0.00423017
*CONN
*I *548:A I *D sky130_fd_sc_hd__nor2_1
*I *550:A2 I *D sky130_fd_sc_hd__a21oi_1
*I *551:C I *D sky130_fd_sc_hd__and3_1
*I *552:A2 I *D sky130_fd_sc_hd__a21o_1
*I *555:D I *D sky130_fd_sc_hd__and4_1
*I *549:A2 I *D sky130_fd_sc_hd__o21ai_1
*I *546:X O *D sky130_fd_sc_hd__and4_1
*CAP
1 *548:A 0.000291648
2 *550:A2 0
3 *551:C 0
4 *552:A2 0.000102404
5 *555:D 0.000213141
6 *549:A2 0
7 *546:X 2.01797e-05
8 *76:42 0.00017729
9 *76:25 0.000397911
10 *76:23 0.000375
11 *76:12 0.00060203
12 *76:6 0.000648741
13 *548:A *542:B 4.2573e-05
14 *548:A *547:A2 9.88574e-06
15 *548:A *548:B 2.53879e-05
16 *548:A *165:16 0.000143543
17 *548:A *166:18 2.47321e-05
18 *552:A2 *552:A1 5.8118e-05
19 *552:A2 *552:B1 0.000141344
20 *552:A2 *553:A_N 2.2801e-06
21 *552:A2 *167:53 4.21048e-05
22 *555:D *552:B1 2.8133e-05
23 *555:D *555:A 8.93751e-06
24 *555:D *555:B 2.95526e-05
25 *555:D *82:10 8.79053e-05
26 *555:D *138:63 2.35118e-06
27 *555:D *138:78 3.26224e-05
28 *555:D *167:38 9.03024e-06
29 *555:D *168:23 4.60997e-05
30 *555:D *181:10 6.35124e-05
31 *76:6 *542:B 9.84794e-05
32 *76:6 *165:16 9.84794e-05
33 *76:12 *625:CLK 0
34 *76:12 *138:86 0
35 *76:12 *138:127 3.83778e-05
36 *76:12 *166:31 0.000119735
37 *76:12 *167:20 0
38 *76:12 *180:21 0
39 *76:23 *550:B1 1.08287e-05
40 *76:23 *625:CLK 8.87197e-05
41 *76:23 *138:78 2.49508e-05
42 *76:23 *167:12 7.90273e-06
43 *76:25 *138:78 3.28687e-05
44 *76:25 *167:38 3.19949e-05
45 *76:42 *553:A_N 1.67877e-05
46 *76:42 *79:19 2.45549e-06
47 *55:12 *76:23 3.21299e-05
*RES
1 *546:X *76:6 24.0979 
2 *76:6 *76:12 37.1879 
3 *76:12 *549:A2 23 
4 *76:12 *76:23 19.205 
5 *76:23 *76:25 1.90571 
6 *76:25 *555:D 42.785 
7 *76:25 *76:42 15.9632 
8 *76:42 *552:A2 25.7032 
9 *76:42 *551:C 23 
10 *76:23 *550:A2 38 
11 *76:6 *548:A 28.7586 
*END

*D_NET *77 0.000136755
*CONN
*I *548:B I *D sky130_fd_sc_hd__nor2_1
*I *547:Y O *D sky130_fd_sc_hd__o21ai_1
*CAP
1 *548:B 4.88218e-05
2 *547:Y 4.88218e-05
3 *548:B *547:A2 1.37232e-05
4 *548:A *548:B 2.53879e-05
*RES
1 *547:Y *548:B 47.1186 
*END

*D_NET *78 0.000105134
*CONN
*I *550:B1 I *D sky130_fd_sc_hd__a21oi_1
*I *549:Y O *D sky130_fd_sc_hd__o21ai_1
*CAP
1 *550:B1 1.14131e-05
2 *549:Y 1.14131e-05
3 *550:B1 *167:12 5.79559e-05
4 *55:12 *550:B1 1.3523e-05
5 *76:23 *550:B1 1.08287e-05
*RES
1 *549:Y *550:B1 46.6214 
*END

*D_NET *79 0.00147972
*CONN