*SPEF "ieee 1481-1999"
*DESIGN "mcu"
*DATE "16:25:01 Thursday July 18, 2024"
*VENDOR "The OpenROAD Project"
*PROGRAM "OpenROAD"
*VERSION "d423155d69de7f683a23f6916ead418a615ad4ad"
*DESIGN_FLOW "NAME_SCOPE LOCAL" "PIN_CAP NONE"
*DIVIDER /
*DELIMITER :
*BUS_DELIMITER []
*T_UNIT 1 NS
*C_UNIT 1 PF
*R_UNIT 1 OHM
*L_UNIT 1 HENRY

*NAME_MAP
*3 clk
*4 cs
*5 in[0]
*6 in[10]
*7 in[11]
*8 in[12]
*9 in[13]
*10 in[14]
*11 in[15]
*12 in[1]
*13 in[2]
*14 in[3]
*15 in[4]
*16 in[5]
*17 in[6]
*18 in[7]
*19 in[8]
*20 in[9]
*21 io[0]
*22 io[1]
*23 io[2]
*24 io[3]
*25 net9
*26 net19
*27 net20
*28 net21
*29 net22
*30 net23
*31 net24
*32 net10
*33 net11
*34 net12
*35 net13
*36 net14
*37 net15
*38 net16
*39 net17
*40 net18
*41 rst
*42 rx
*43 net25
*44 sclk
*45 sda_io
*46 tx
*47 _000_
*48 _001_
*49 _002_
*50 _003_
*51 _004_
*52 _005_
*53 _006_
*54 _007_
*55 _008_
*56 _009_
*57 _010_
*58 _011_
*59 _012_
*60 _013_
*61 _014_
*62 _015_
*63 _016_
*64 _017_
*65 _018_
*66 _019_
*67 _020_
*68 _021_
*69 _022_
*70 _023_
*71 _024_
*72 _025_
*73 _026_
*74 _027_
*75 _028_
*76 _029_
*77 _030_
*78 _031_
*79 _032_
*80 _033_
*81 _034_
*82 _035_
*83 _036_
*84 _037_
*85 _038_
*86 _039_
*87 _040_
*88 _041_
*89 _042_
*90 _043_
*91 _044_
*92 _045_
*93 _046_
*94 _047_
*95 _048_
*96 _049_
*97 _050_
*98 _051_
*99 _052_
*100 _053_
*101 _054_
*102 _055_
*103 _056_
*104 _057_
*105 _058_
*106 _059_
*107 _060_
*108 _061_
*109 _062_
*110 _063_
*111 _064_
*112 _065_
*113 _066_
*114 _067_
*115 _068_
*116 _069_
*117 _070_
*118 _071_
*119 _072_
*120 _073_
*121 _074_
*122 _075_
*123 _076_
*124 _077_
*125 _078_
*126 _079_
*127 _080_
*128 _081_
*129 _082_
*130 _083_
*131 _084_
*132 _085_
*133 _086_
*134 _087_
*135 _088_
*136 _089_
*137 _090_
*138 _091_
*139 _092_
*140 _093_
*141 _094_
*142 _095_
*143 _096_
*144 _097_
*145 _098_
*146 _099_
*147 _100_
*148 _101_
*149 bus\.QSPI_master\.cntr_state_q\[0\]
*150 bus\.QSPI_master\.cntr_state_q\[1\]
*151 bus\.QSPI_master\.cntr_state_q\[2\]
*152 bus\.QSPI_master\.state_q\[0\]
*153 bus\.QSPI_master\.state_q_prv
*154 bus\.UART\.uart_core\.tx_clk_cntr\[0\]
*155 bus\.UART\.uart_core\.tx_clk_cntr\[10\]
*156 bus\.UART\.uart_core\.tx_clk_cntr\[11\]
*157 bus\.UART\.uart_core\.tx_clk_cntr\[12\]
*158 bus\.UART\.uart_core\.tx_clk_cntr\[13\]
*159 bus\.UART\.uart_core\.tx_clk_cntr\[14\]
*160 bus\.UART\.uart_core\.tx_clk_cntr\[15\]
*161 bus\.UART\.uart_core\.tx_clk_cntr\[1\]
*162 bus\.UART\.uart_core\.tx_clk_cntr\[2\]
*163 bus\.UART\.uart_core\.tx_clk_cntr\[3\]
*164 bus\.UART\.uart_core\.tx_clk_cntr\[4\]
*165 bus\.UART\.uart_core\.tx_clk_cntr\[5\]
*166 bus\.UART\.uart_core\.tx_clk_cntr\[6\]
*167 bus\.UART\.uart_core\.tx_clk_cntr\[7\]
*168 bus\.UART\.uart_core\.tx_clk_cntr\[8\]
*169 bus\.UART\.uart_core\.tx_clk_cntr\[9\]
*170 bus\.UART\.uart_core\.tx_cntr\[0\]
*171 bus\.UART\.uart_core\.tx_cntr\[1\]
*172 bus\.UART\.uart_core\.tx_cntr\[2\]
*173 bus\.UART\.uart_core\.tx_state\[0\]
*174 bus\.UART\.uart_core\.tx_state\[1\]
*175 bus\.UART\.uart_core\.tx_state_en
*176 clknet_0_clk
*177 clknet_2_0__leaf_clk
*178 clknet_2_1__leaf_clk
*179 clknet_2_2__leaf_clk
*180 clknet_2_3__leaf_clk
*181 net1
*182 net2
*183 net26
*184 net27
*185 net28
*186 net29
*187 net3
*188 net4
*189 net5
*190 net6
*191 net7
*192 net8
*193 FILLER_0_0_107
*194 FILLER_0_0_111
*195 FILLER_0_0_116
*196 FILLER_0_0_17
*197 FILLER_0_0_26
*198 FILLER_0_0_29
*199 FILLER_0_0_3
*200 FILLER_0_0_35
*201 FILLER_0_0_44
*202 FILLER_0_0_53
*203 FILLER_0_0_57
*204 FILLER_0_0_62
*205 FILLER_0_0_71
*206 FILLER_0_0_80
*207 FILLER_0_0_85
*208 FILLER_0_0_89
*209 FILLER_0_0_98
*210 FILLER_0_10_105
*211 FILLER_0_10_123
*212 FILLER_0_10_25
*213 FILLER_0_10_29
*214 FILLER_0_10_3
*215 FILLER_0_10_37
*216 FILLER_0_10_54
*217 FILLER_0_10_66
*218 FILLER_0_10_7
*219 FILLER_0_10_76
*220 FILLER_0_10_85
*221 FILLER_0_10_97
*222 FILLER_0_11_103
*223 FILLER_0_11_108
*224 FILLER_0_11_113
*225 FILLER_0_11_121
*226 FILLER_0_11_19
*227 FILLER_0_11_26
*228 FILLER_0_11_31
*229 FILLER_0_11_38
*230 FILLER_0_11_50
*231 FILLER_0_11_57
*232 FILLER_0_11_86
*233 FILLER_0_11_92
*234 FILLER_0_11_96
*235 FILLER_0_12_112
*236 FILLER_0_12_13
*237 FILLER_0_12_19
*238 FILLER_0_12_29
*239 FILLER_0_12_3
*240 FILLER_0_12_47
*241 FILLER_0_12_51
*242 FILLER_0_12_57
*243 FILLER_0_12_77
*244 FILLER_0_12_83
*245 FILLER_0_12_9
*246 FILLER_0_13_107
*247 FILLER_0_13_111
*248 FILLER_0_13_113
*249 FILLER_0_13_3
*250 FILLER_0_13_49
*251 FILLER_0_13_57
*252 FILLER_0_13_75
*253 FILLER_0_13_87
*254 FILLER_0_14_123
*255 FILLER_0_14_21
*256 FILLER_0_14_3
*257 FILLER_0_14_46
*258 FILLER_0_14_58
*259 FILLER_0_14_62
*260 FILLER_0_14_69
*261 FILLER_0_14_81
*262 FILLER_0_14_90
*263 FILLER_0_14_98
*264 FILLER_0_15_110
*265 FILLER_0_15_113
*266 FILLER_0_15_121
*267 FILLER_0_15_19
*268 FILLER_0_15_27
*269 FILLER_0_15_35
*270 FILLER_0_15_42
*271 FILLER_0_15_54
*272 FILLER_0_15_57
*273 FILLER_0_15_65
*274 FILLER_0_15_72
*275 FILLER_0_15_84
*276 FILLER_0_15_98
*277 FILLER_0_16_111
*278 FILLER_0_16_123
*279 FILLER_0_16_15
*280 FILLER_0_16_27
*281 FILLER_0_16_3
*282 FILLER_0_16_37
*283 FILLER_0_16_49
*284 FILLER_0_16_55
*285 FILLER_0_16_62
*286 FILLER_0_16_74
*287 FILLER_0_16_82
*288 FILLER_0_16_85
*289 FILLER_0_17_111
*290 FILLER_0_17_113
*291 FILLER_0_17_121
*292 FILLER_0_17_15
*293 FILLER_0_17_21
*294 FILLER_0_17_3
*295 FILLER_0_17_38
*296 FILLER_0_17_46
*297 FILLER_0_17_87
*298 FILLER_0_17_91
*299 FILLER_0_18_102
*300 FILLER_0_18_122
*301 FILLER_0_18_18
*302 FILLER_0_18_26
*303 FILLER_0_18_29
*304 FILLER_0_18_3
*305 FILLER_0_18_37
*306 FILLER_0_18_60
*307 FILLER_0_18_78
*308 FILLER_0_18_85
*309 FILLER_0_19_113
*310 FILLER_0_19_121
*311 FILLER_0_19_17
*312 FILLER_0_19_33
*313 FILLER_0_19_39
*314 FILLER_0_19_60
*315 FILLER_0_19_72
*316 FILLER_0_19_92
*317 FILLER_0_1_105
*318 FILLER_0_1_111
*319 FILLER_0_1_113
*320 FILLER_0_1_121
*321 FILLER_0_1_20
*322 FILLER_0_1_3
*323 FILLER_0_1_49
*324 FILLER_0_1_55
*325 FILLER_0_1_57
*326 FILLER_0_1_69
*327 FILLER_0_1_81
*328 FILLER_0_1_93
*329 FILLER_0_20_109
*330 FILLER_0_20_113
*331 FILLER_0_20_121
*332 FILLER_0_20_21
*333 FILLER_0_20_27
*334 FILLER_0_20_29
*335 FILLER_0_20_3
*336 FILLER_0_20_41
*337 FILLER_0_20_53
*338 FILLER_0_20_57
*339 FILLER_0_20_69
*340 FILLER_0_20_81
*341 FILLER_0_20_85
*342 FILLER_0_20_97
*343 FILLER_0_2_109
*344 FILLER_0_2_121
*345 FILLER_0_2_14
*346 FILLER_0_2_26
*347 FILLER_0_2_29
*348 FILLER_0_2_3
*349 FILLER_0_2_56
*350 FILLER_0_2_68
*351 FILLER_0_2_80
*352 FILLER_0_2_85
*353 FILLER_0_2_97
*354 FILLER_0_3_106
*355 FILLER_0_3_113
*356 FILLER_0_3_121
*357 FILLER_0_3_15
*358 FILLER_0_3_27
*359 FILLER_0_3_3
*360 FILLER_0_3_33
*361 FILLER_0_3_54
*362 FILLER_0_3_57
*363 FILLER_0_3_65
*364 FILLER_0_3_82
*365 FILLER_0_3_94
*366 FILLER_0_4_109
*367 FILLER_0_4_121
*368 FILLER_0_4_25
*369 FILLER_0_4_29
*370 FILLER_0_4_3
*371 FILLER_0_4_35
*372 FILLER_0_4_50
*373 FILLER_0_4_62
*374 FILLER_0_4_74
*375 FILLER_0_4_82
*376 FILLER_0_4_85
*377 FILLER_0_4_9
*378 FILLER_0_4_97
*379 FILLER_0_5_105
*380 FILLER_0_5_111
*381 FILLER_0_5_113
*382 FILLER_0_5_121
*383 FILLER_0_5_15
*384 FILLER_0_5_19
*385 FILLER_0_5_26
*386 FILLER_0_5_3
*387 FILLER_0_5_34
*388 FILLER_0_5_57
*389 FILLER_0_5_69
*390 FILLER_0_5_81
*391 FILLER_0_6_104
*392 FILLER_0_6_123
*393 FILLER_0_6_25
*394 FILLER_0_6_52
*395 FILLER_0_6_60
*396 FILLER_0_6_82
*397 FILLER_0_6_85
*398 FILLER_0_7_117
*399 FILLER_0_7_19
*400 FILLER_0_7_31
*401 FILLER_0_7_35
*402 FILLER_0_7_52
*403 FILLER_0_8_122
*404 FILLER_0_8_15
*405 FILLER_0_8_27
*406 FILLER_0_8_29
*407 FILLER_0_8_3
*408 FILLER_0_8_35
*409 FILLER_0_8_45
*410 FILLER_0_8_57
*411 FILLER_0_8_79
*412 FILLER_0_8_83
*413 FILLER_0_8_85
*414 FILLER_0_9_11
*415 FILLER_0_9_111
*416 FILLER_0_9_113
*417 FILLER_0_9_121
*418 FILLER_0_9_22
*419 FILLER_0_9_3
*420 FILLER_0_9_34
*421 FILLER_0_9_46
*422 FILLER_0_9_54
*423 FILLER_0_9_57
*424 FILLER_0_9_69
*425 FILLER_0_9_81
*426 PHY_EDGE_ROW_0_Left_21
*427 PHY_EDGE_ROW_0_Right_0
*428 PHY_EDGE_ROW_10_Left_31
*429 PHY_EDGE_ROW_10_Right_10
*430 PHY_EDGE_ROW_11_Left_32
*431 PHY_EDGE_ROW_11_Right_11
*432 PHY_EDGE_ROW_12_Left_33
*433 PHY_EDGE_ROW_12_Right_12
*434 PHY_EDGE_ROW_13_Left_34
*435 PHY_EDGE_ROW_13_Right_13
*436 PHY_EDGE_ROW_14_Left_35
*437 PHY_EDGE_ROW_14_Right_14
*438 PHY_EDGE_ROW_15_Left_36
*439 PHY_EDGE_ROW_15_Right_15
*440 PHY_EDGE_ROW_16_Left_37
*441 PHY_EDGE_ROW_16_Right_16
*442 PHY_EDGE_ROW_17_Left_38
*443 PHY_EDGE_ROW_17_Right_17
*444 PHY_EDGE_ROW_18_Left_39
*445 PHY_EDGE_ROW_18_Right_18
*446 PHY_EDGE_ROW_19_Left_40
*447 PHY_EDGE_ROW_19_Right_19
*448 PHY_EDGE_ROW_1_Left_22
*449 PHY_EDGE_ROW_1_Right_1
*450 PHY_EDGE_ROW_20_Left_41
*451 PHY_EDGE_ROW_20_Right_20
*452 PHY_EDGE_ROW_2_Left_23
*453 PHY_EDGE_ROW_2_Right_2
*454 PHY_EDGE_ROW_3_Left_24
*455 PHY_EDGE_ROW_3_Right_3
*456 PHY_EDGE_ROW_4_Left_25
*457 PHY_EDGE_ROW_4_Right_4
*458 PHY_EDGE_ROW_5_Left_26
*459 PHY_EDGE_ROW_5_Right_5
*460 PHY_EDGE_ROW_6_Left_27
*461 PHY_EDGE_ROW_6_Right_6
*462 PHY_EDGE_ROW_7_Left_28
*463 PHY_EDGE_ROW_7_Right_7
*464 PHY_EDGE_ROW_8_Left_29
*465 PHY_EDGE_ROW_8_Right_8
*466 PHY_EDGE_ROW_9_Left_30
*467 PHY_EDGE_ROW_9_Right_9
*468 TAP_TAPCELL_ROW_0_42
*469 TAP_TAPCELL_ROW_0_43
*470 TAP_TAPCELL_ROW_0_44
*471 TAP_TAPCELL_ROW_0_45
*472 TAP_TAPCELL_ROW_10_64
*473 TAP_TAPCELL_ROW_10_65
*474 TAP_TAPCELL_ROW_11_66
*475 TAP_TAPCELL_ROW_11_67
*476 TAP_TAPCELL_ROW_12_68
*477 TAP_TAPCELL_ROW_12_69
*478 TAP_TAPCELL_ROW_13_70
*479 TAP_TAPCELL_ROW_13_71
*480 TAP_TAPCELL_ROW_14_72
*481 TAP_TAPCELL_ROW_14_73
*482 TAP_TAPCELL_ROW_15_74
*483 TAP_TAPCELL_ROW_15_75
*484 TAP_TAPCELL_ROW_16_76
*485 TAP_TAPCELL_ROW_16_77
*486 TAP_TAPCELL_ROW_17_78
*487 TAP_TAPCELL_ROW_17_79
*488 TAP_TAPCELL_ROW_18_80
*489 TAP_TAPCELL_ROW_18_81
*490 TAP_TAPCELL_ROW_19_82
*491 TAP_TAPCELL_ROW_19_83
*492 TAP_TAPCELL_ROW_1_46
*493 TAP_TAPCELL_ROW_1_47
*494 TAP_TAPCELL_ROW_20_84
*495 TAP_TAPCELL_ROW_20_85
*496 TAP_TAPCELL_ROW_20_86
*497 TAP_TAPCELL_ROW_20_87
*498 TAP_TAPCELL_ROW_2_48
*499 TAP_TAPCELL_ROW_2_49
*500 TAP_TAPCELL_ROW_3_50
*501 TAP_TAPCELL_ROW_3_51
*502 TAP_TAPCELL_ROW_4_52
*503 TAP_TAPCELL_ROW_4_53
*504 TAP_TAPCELL_ROW_5_54
*505 TAP_TAPCELL_ROW_5_55
*506 TAP_TAPCELL_ROW_6_56
*507 TAP_TAPCELL_ROW_6_57
*508 TAP_TAPCELL_ROW_7_58
*509 TAP_TAPCELL_ROW_7_59
*510 TAP_TAPCELL_ROW_8_60
*511 TAP_TAPCELL_ROW_8_61
*512 TAP_TAPCELL_ROW_9_62
*513 TAP_TAPCELL_ROW_9_63
*514 _110_
*515 _111_
*516 _112_
*517 _113_
*518 _114_
*519 _115_
*520 _116_
*521 _117_
*522 _118_
*523 _119_
*524 _120_
*525 _121_
*526 _122_
*527 _123_
*528 _124_
*529 _125_
*530 _126_
*531 _127_
*532 _128_
*533 _129_
*534 _130_
*535 _131_
*536 _132_
*537 _133_
*538 _134_
*539 _135_
*540 _136_
*541 _137_
*542 _138_
*543 _139_
*544 _140_
*545 _141_
*546 _142_
*547 _143_
*548 _144_
*549 _145_
*550 _146_
*551 _147_
*552 _148_
*553 _149_
*554 _150_
*555 _151_
*556 _152_
*557 _153_
*558 _154_
*559 _155_
*560 _156_
*561 _157_
*562 _158_
*563 _159_
*564 _160_
*565 _161_
*566 _162_
*567 _163_
*568 _164_
*569 _165_
*570 _166_
*571 _167_
*572 _168_
*573 _169_
*574 _170_
*575 _171_
*576 _172_
*577 _173_
*578 _174_
*579 _175_
*580 _176_
*581 _177_
*582 _178_
*583 _179_
*584 _180_
*585 _181_
*586 _182_
*587 _183_
*588 _184_
*589 _185_
*590 _186_
*591 _187_
*592 _188_
*593 _189_
*594 _190_
*595 _191_
*596 _192_
*597 _193_
*598 _194_
*599 _195_
*600 _196_
*601 _197_
*602 _198_
*603 _199_
*604 _200_
*605 _201_
*606 _202_
*607 _203_
*608 _204_
*609 _205_
*610 _206_
*611 _207_
*612 _208_
*613 _209_
*614 _210_
*615 _211_
*616 _212_
*617 _213_
*618 _214_
*619 _215_
*620 _216_
*621 _217_
*622 _218_
*623 _219_
*624 _220_
*625 _221_
*626 _222_
*627 _223_
*628 _224_
*629 _225_
*630 _226_
*631 _227_
*632 _228_
*633 _229_
*634 _230_
*635 _231_
*636 _232_
*637 _233_
*638 _234_
*639 _235_
*640 _236_
*641 _237_
*642 _238_
*643 _239_
*644 _240_
*645 _241_
*646 _267_
*647 _267__29
*648 _267__5
*649 _268_
*650 _268__26
*651 _268__6
*652 _269_
*653 _269__27
*654 _269__7
*655 _270_
*656 _270__28
*657 _270__8
*658 clkbuf_0_clk
*659 clkbuf_2_0__f_clk
*660 clkbuf_2_1__f_clk
*661 clkbuf_2_2__f_clk
*662 clkbuf_2_3__f_clk
*663 input1
*664 mcu_10
*665 mcu_11
*666 mcu_12
*667 mcu_13
*668 mcu_14
*669 mcu_15
*670 mcu_16
*671 mcu_17
*672 mcu_18
*673 mcu_19
*674 mcu_20
*675 mcu_21
*676 mcu_22
*677 mcu_23
*678 mcu_24
*679 mcu_25
*680 mcu_9
*681 output2
*682 output3
*683 output4

*PORTS
clk I
cs O
in[0] I
in[10] I
in[11] I
in[12] I
in[13] I
in[14] I
in[15] I
in[1] I
in[2] I
in[3] I
in[4] I
in[5] I
in[6] I
in[7] I
in[8] I
in[9] I
io[0] I
io[1] I
io[2] I
io[3] I
out[0] O
out[10] O
out[11] O
out[12] O
out[13] O
out[14] O
out[15] O
out[1] O
out[2] O
out[3] O
out[4] O
out[5] O
out[6] O
out[7] O
out[8] O
out[9] O
rst I
rx I
scl_io O
sclk O
sda_io I
tx O

*D_NET *3 0.00681627
*CONN
*P clk I
*I *658:A I *D sky130_fd_sc_hd__clkbuf_16
*CAP
1 clk 0.00307457
2 *658:A 0.00307457
3 *658:A *518:B 0
4 *658:A *522:C 0.000370471
5 *658:A *523:A 0
6 *658:A *527:A 0.000143375
7 *658:A *554:A 5.33005e-05
8 *658:A *661:A 0
9 *658:A *136:8 9.99853e-05
*RES
1 clk *658:A 39.1806 
*END

*D_NET *4 0.000596208
*CONN
*P cs O
*I *681:X O *D sky130_fd_sc_hd__buf_1
*CAP
1 cs 0.000289242
2 *681:X 0.000289242
3 cs *182:10 1.77247e-05
*RES
1 *681:X cs 19.1936 
*END

*D_NET *21 0.00201264
*CONN
*P io[0] I
*I *646:Z O *D sky130_fd_sc_hd__ebufn_1
*CAP
1 io[0] 0.000990386
2 *646:Z 0.000990386
3 io[0] io[1] 0
4 io[0] *646:A 3.18676e-05
*RES
1 *646:Z io[0] 31.4071 
*END

*D_NET *22 0.0011446
*CONN
*P io[1] I
*I *649:Z O *D sky130_fd_sc_hd__ebufn_1
*CAP
1 io[1] 0.000556365
2 *649:Z 0.000556365
3 io[1] io[2] 0
4 io[1] *649:A 3.18676e-05
5 io[0] io[1] 0
*RES
1 *649:Z io[1] 23.675 
*END

*D_NET *23 0.0014575
*CONN
*P io[2] I
*I *652:Z O *D sky130_fd_sc_hd__ebufn_1
*CAP
1 io[2] 0.00070007
2 *652:Z 0.00070007
3 io[2] io[3] 5.73625e-05
4 io[1] io[2] 0
*RES
1 *652:Z io[2] 28.4964 
*END

*D_NET *24 0.00179773
*CONN
*P io[3] I
*I *655:Z O *D sky130_fd_sc_hd__ebufn_1
*CAP
1 io[3] 0.000848727
2 *655:Z 0.000848727
3 io[3] tx 2.11419e-05
4 io[3] *655:A 2.1768e-05
5 io[2] io[3] 5.73625e-05
*RES
1 *655:Z io[3] 28.4071 
*END

*D_NET *25 0.00167913
*CONN
*P out[0] O
*I *680:LO O *D sky130_fd_sc_hd__conb_1
*CAP
1 out[0] 0.000705193
2 *680:LO 0.000705193
3 out[0] out[1] 5.52302e-05
4 out[0] sclk 0.000156915
5 out[0] *682:A 5.65955e-05
*RES
1 *680:LO out[0] 28.3 
*END

*D_NET *26 0.000942248
*CONN
*P out[10] O
*I *673:LO O *D sky130_fd_sc_hd__conb_1
*CAP
1 out[10] 0.000471124
2 *673:LO 0.000471124
3 out[10] out[11] 0
4 out[10] out[9] 0
*RES
1 *673:LO out[10] 22.9071 
*END

*D_NET *27 0.000845334
*CONN
*P out[11] O
*I *674:LO O *D sky130_fd_sc_hd__conb_1
*CAP
1 out[11] 0.000422667
2 *674:LO 0.000422667
3 out[11] out[12] 0
4 out[10] out[11] 0
*RES
1 *674:LO out[11] 21.8357 
*END

*D_NET *28 0.00084331
*CONN
*P out[12] O
*I *675:LO O *D sky130_fd_sc_hd__conb_1
*CAP
1 out[12] 0.000421655
2 *675:LO 0.000421655
3 out[12] out[13] 0
4 out[11] out[12] 0
*RES
1 *675:LO out[12] 21.8357 
*END

*D_NET *29 0.00084331
*CONN
*P out[13] O
*I *676:LO O *D sky130_fd_sc_hd__conb_1
*CAP
1 out[13] 0.000421655
2 *676:LO 0.000421655
3 out[13] out[14] 0
4 out[12] out[13] 0
*RES
1 *676:LO out[13] 21.8357 
*END

*D_NET *30 0.000764221
*CONN
*P out[14] O
*I *677:LO O *D sky130_fd_sc_hd__conb_1
*CAP
1 out[14] 0.00038211
2 *677:LO 0.00038211
3 out[14] out[15] 0
4 out[13] out[14] 0
*RES
1 *677:LO out[14] 21.3 
*END

*D_NET *31 0.00128902
*CONN
*P out[15] O
*I *678:LO O *D sky130_fd_sc_hd__conb_1
*CAP
1 out[15] 0.000644508
2 *678:LO 0.000644508
3 out[14] out[15] 0
*RES
1 *678:LO out[15] 25.8357 
*END

*D_NET *32 0.000882363
*CONN
*P out[1] O
*I *664:LO O *D sky130_fd_sc_hd__conb_1
*CAP
1 out[1] 0.000399111
2 *664:LO 0.000399111
3 out[1] out[2] 0
4 out[1] sclk 2.89114e-05
5 out[0] out[1] 5.52302e-05
*RES
1 *664:LO out[1] 21.8357 
*END

*D_NET *33 0.000891707
*CONN
*P out[2] O
*I *665:LO O *D sky130_fd_sc_hd__conb_1
*CAP
1 out[2] 0.000418238
2 *665:LO 0.000418238
3 out[2] out[3] 0
4 out[2] *682:A 5.52302e-05
5 out[1] out[2] 0
*RES
1 *665:LO out[2] 21.8357 
*END

*D_NET *34 0.000845334
*CONN
*P out[3] O
*I *666:LO O *D sky130_fd_sc_hd__conb_1
*CAP
1 out[3] 0.000422667
2 *666:LO 0.000422667
3 out[3] out[4] 0
4 out[2] out[3] 0
*RES
1 *666:LO out[3] 21.8357 
*END

*D_NET *35 0.00084331
*CONN
*P out[4] O
*I *667:LO O *D sky130_fd_sc_hd__conb_1
*CAP
1 out[4] 0.000421655
2 *667:LO 0.000421655
3 out[4] out[5] 0
4 out[3] out[4] 0
*RES
1 *667:LO out[4] 21.8357 
*END

*D_NET *36 0.00084331
*CONN
*P out[5] O
*I *668:LO O *D sky130_fd_sc_hd__conb_1
*CAP
1 out[5] 0.000421655
2 *668:LO 0.000421655
3 out[5] out[6] 0
4 out[4] out[5] 0
*RES
1 *668:LO out[5] 21.8357 
*END

*D_NET *37 0.00084331
*CONN
*P out[6] O
*I *669:LO O *D sky130_fd_sc_hd__conb_1
*CAP
1 out[6] 0.000421655
2 *669:LO 0.000421655
3 out[6] out[7] 0
4 out[5] out[6] 0
*RES
1 *669:LO out[6] 21.8357 
*END

*D_NET *38 0.00084331
*CONN
*P out[7] O
*I *670:LO O *D sky130_fd_sc_hd__conb_1
*CAP
1 out[7] 0.000421655
2 *670:LO 0.000421655
3 out[7] out[8] 0
4 out[6] out[7] 0
*RES
1 *670:LO out[7] 21.8357 
*END

*D_NET *39 0.00084331
*CONN
*P out[8] O
*I *671:LO O *D sky130_fd_sc_hd__conb_1
*CAP
1 out[8] 0.000421655
2 *671:LO 0.000421655
3 out[8] out[9] 0
4 out[7] out[8] 0
*RES
1 *671:LO out[8] 21.8357 
*END

*D_NET *40 0.000845415
*CONN
*P out[9] O
*I *672:LO O *D sky130_fd_sc_hd__conb_1
*CAP
1 out[9] 0.000422707
2 *672:LO 0.000422707
3 out[10] out[9] 0
4 out[8] out[9] 0
*RES
1 *672:LO out[9] 21.8357 
*END

*D_NET *41 0.000582541
*CONN
*P rst I
*I *663:A I *D sky130_fd_sc_hd__dlymetal6s2s_1
*CAP
1 rst 0.00029127
2 *663:A 0.00029127
*RES
1 rst *663:A 19.2651 
*END

*D_NET *43 0.000413711
*CONN
*P scl_io O
*I *679:LO O *D sky130_fd_sc_hd__conb_1
*CAP
1 scl_io 0.000200758
2 *679:LO 0.000200758
3 scl_io *155:10 1.21955e-05
*RES
1 *679:LO scl_io 18.0508 
*END

*D_NET *44 0.00101676
*CONN
*P sclk O
*I *682:X O *D sky130_fd_sc_hd__buf_1
*CAP
1 sclk 0.000415467
2 *682:X 0.000415467
3 out[0] sclk 0.000156915
4 out[1] sclk 2.89114e-05
*RES
1 *682:X sclk 21.9947 
*END

*D_NET *46 0.00182868
*CONN
*P tx O
*I *683:X O *D sky130_fd_sc_hd__buf_1
*CAP
1 tx 0.000903768
2 *683:X 0.000903768
3 io[3] tx 2.11419e-05
*RES
1 *683:X tx 19.5109 
*END

*D_NET *47 0.00120266
*CONN
*I *617:D I *D sky130_fd_sc_hd__dfxtp_1
*I *525:X O *D sky130_fd_sc_hd__clkbuf_1
*CAP
1 *617:D 0.000258854
2 *525:X 0.000258854
3 *617:D *525:A 0.000315806
4 *617:D *133:8 0.000225609
5 *617:D *181:22 0.000143538
*RES
1 *525:X *617:D 24.533 
*END

*D_NET *48 0.000857162
*CONN
*I *618:D I *D sky130_fd_sc_hd__dfxtp_1
*I *529:Y O *D sky130_fd_sc_hd__nor2_1
*CAP
1 *618:D 0.000231347
2 *529:Y 0.000231347
3 *618:D *526:A 9.86486e-06
4 *618:D *526:B 5.92441e-05
5 *618:D *529:A 5.49995e-05
6 *618:D *553:B 2.27187e-05
7 *618:D *660:A 0.000180207
8 *618:D *137:14 6.74328e-05
*RES
1 *529:Y *618:D 32.408 
*END

*D_NET *49 0.000568805
*CONN
*I *619:D I *D sky130_fd_sc_hd__dfxtp_1
*I *532:Y O *D sky130_fd_sc_hd__a21oi_1
*CAP
1 *619:D 0.000284403
2 *532:Y 0.000284403
3 *619:D *683:A 0
4 *619:D *161:12 0
5 *619:D *162:10 0
6 *619:D *162:12 0
*RES
1 *532:Y *619:D 31.9616 
*END

*D_NET *50 0.000836006
*CONN
*I *620:D I *D sky130_fd_sc_hd__dfxtp_1
*I *536:X O *D sky130_fd_sc_hd__clkbuf_1
*CAP
1 *620:D 0.000398136
2 *536:X 0.000398136
3 *620:D *536:A 1.24368e-05
4 *620:D *162:10 2.72967e-05
*RES
1 *536:X *620:D 24.9438 
*END

*D_NET *51 0.000518734
*CONN
*I *621:D I *D sky130_fd_sc_hd__dfxtp_1
*I *539:X O *D sky130_fd_sc_hd__o211a_1
*CAP
1 *621:D 0.000134144
2 *539:X 0.000134144
3 *621:D *539:A1 9.19211e-05
4 *621:D *539:A2 3.29284e-05
5 *621:D *622:CLK 1.00332e-05
6 *621:D *180:33 1.64343e-05
7 *621:D *180:35 9.9129e-05
*RES
1 *539:X *621:D 30.0509 
*END

*D_NET *52 0.00046161
*CONN
*I *622:D I *D sky130_fd_sc_hd__dfxtp_1
*I *541:Y O *D sky130_fd_sc_hd__a21oi_1
*CAP
1 *622:D 0.000230805
2 *541:Y 0.000230805
*RES
1 *541:Y *622:D 31.3545 
*END

*D_NET *53 0.00025682
*CONN
*I *623:D I *D sky130_fd_sc_hd__dfxtp_1
*I *545:X O *D sky130_fd_sc_hd__clkbuf_1
*CAP
1 *623:D 0.000104418
2 *545:X 0.000104418
3 *623:D *623:CLK 4.79842e-05
4 *623:D *165:10 0
*RES
1 *545:X *623:D 29.7116 
*END

*D_NET *54 0.000213073
*CONN
*I *624:D I *D sky130_fd_sc_hd__dfxtp_1
*I *548:Y O *D sky130_fd_sc_hd__nor2_1
*CAP
1 *624:D 9.83194e-05
2 *548:Y 9.83194e-05
3 *624:D *166:12 1.64343e-05
4 *624:D *180:21 0
*RES
1 *548:Y *624:D 29.1045 
*END

*D_NET *55 0.000661413
*CONN
*I *625:D I *D sky130_fd_sc_hd__dfxtp_1
*I *550:Y O *D sky130_fd_sc_hd__a21oi_1
*CAP
1 *625:D 0.000146283
2 *550:Y 0.000146283
3 *625:D *550:B1 1.32056e-05
4 *625:D *625:CLK 5.69744e-05
5 *625:D *76:23 3.22353e-05
6 *625:D *167:6 0.000210727
7 *625:D *167:8 3.45026e-05
8 *625:D *167:12 2.12005e-05
*RES
1 *550:Y *625:D 22.7473 
*END

*D_NET *56 0.000383106
*CONN
*I *626:D I *D sky130_fd_sc_hd__dfxtp_1
*I *554:X O *D sky130_fd_sc_hd__clkbuf_1
*CAP
1 *626:D 8.18357e-05
2 *554:X 8.18357e-05
3 *626:D *523:A 5.95099e-05
4 *626:D *554:A 0.000100673
5 *626:D *626:CLK 5.92518e-05
*RES
1 *554:X *626:D 29.5152 
*END

*D_NET *57 0.000591694
*CONN
*I *627:D I *D sky130_fd_sc_hd__dfxtp_1
*I *557:Y O *D sky130_fd_sc_hd__nor2_1
*CAP
1 *627:D 0.000150082
2 *557:Y 0.000150082
3 *627:D *557:B 2.89016e-05
4 *627:D *82:12 5.29648e-05
5 *627:D *138:63 0.000176234
6 *627:D *179:49 3.34295e-05
*RES
1 *557:Y *627:D 31.2429 
*END

*D_NET *58 0.000543979
*CONN
*I *628:D I *D sky130_fd_sc_hd__dfxtp_1
*I *559:Y O *D sky130_fd_sc_hd__a21oi_1
*CAP
1 *628:D 0.00027199
2 *559:Y 0.00027199
3 *628:D *628:CLK 0
4 *628:D *155:10 0
*RES
1 *559:Y *628:D 32.1759 
*END

*D_NET *59 0.00104057
*CONN
*I *629:D I *D sky130_fd_sc_hd__dfxtp_1
*I *563:X O *D sky130_fd_sc_hd__clkbuf_1
*CAP
1 *629:D 0.000250128
2 *563:X 0.000250128
3 *629:D *521:A 0
4 *629:D *521:B 6.87562e-05
5 *629:D *522:C 8.00806e-05
6 *629:D *565:A 2.59093e-05
7 *629:D *566:B1 0.000183169
8 *629:D *567:B 5.33005e-05
9 *629:D *179:25 0.0001291
*RES
1 *563:X *629:D 34.0821 
*END

*D_NET *60 0.000477806
*CONN
*I *630:D I *D sky130_fd_sc_hd__dfxtp_1
*I *567:Y O *D sky130_fd_sc_hd__nor2_1
*CAP
1 *630:D 0.000179533
2 *567:Y 0.000179533
3 *630:D *630:CLK 2.42415e-05
4 *630:D *89:8 5.52238e-05
5 *630:D *157:10 3.92757e-05
*RES
1 *567:Y *630:D 30.6045 
*END

*D_NET *61 0.000552573
*CONN
*I *631:D I *D sky130_fd_sc_hd__dfxtp_1
*I *569:X O *D sky130_fd_sc_hd__o21a_1
*CAP
1 *631:D 0.00027422
2 *569:X 0.00027422
3 *631:D *570:A2 4.1331e-06
4 *631:D *158:10 0
*RES
1 *569:X *631:D 32.3545 
*END

*D_NET *62 0.000757475
*CONN
*I *632:D I *D sky130_fd_sc_hd__dfxtp_1
*I *573:X O *D sky130_fd_sc_hd__clkbuf_1
*CAP
1 *632:D 0.000182369
2 *573:X 0.000182369
3 *632:D *572:C 0.000202835
4 *632:D *573:A 3.92757e-05
5 *632:D *632:CLK 0.000150625
6 *632:D *159:10 0
*RES
1 *573:X *632:D 32.1759 
*END

*D_NET *63 0.000466937
*CONN
*I *633:D I *D sky130_fd_sc_hd__dfxtp_1
*I *576:Y O *D sky130_fd_sc_hd__a21oi_1
*CAP
1 *633:D 0.000147602
2 *576:Y 0.000147602
3 *633:D *572:C 6.37788e-05
4 *633:D *576:B1 8.00806e-05
5 *633:D *159:12 2.78729e-05
*RES
1 *576:Y *633:D 30.9438 
*END

*D_NET *64 0.000536857
*CONN
*I *634:D I *D sky130_fd_sc_hd__dfxtp_1
*I *582:X O *D sky130_fd_sc_hd__clkbuf_1
*CAP
1 *634:D 0.000173718
2 *582:X 0.000173718
3 *634:D *634:CLK 0.000189422
*RES
1 *582:X *634:D 31.0509 
*END

*D_NET *65 0.00144383
*CONN
*I *635:D I *D sky130_fd_sc_hd__dfxtp_1
*I *585:X O *D sky130_fd_sc_hd__a211o_1
*CAP
1 *635:D 0.000314206
2 *585:X 0.000314206
3 *635:D *589:A 5.91935e-05
4 *635:D *635:CLK 0.000278636
5 *635:D *177:64 0.000477583
*RES
1 *585:X *635:D 25.7473 
*END

*D_NET *66 0.00114367
*CONN
*I *636:D I *D sky130_fd_sc_hd__dfxtp_1
*I *588:X O *D sky130_fd_sc_hd__o211a_1
*CAP
1 *636:D 0.000263179
2 *588:X 0.000263179
3 *636:D *588:A1 1.0484e-05
4 *636:D *612:A2 0.000297559
5 *636:D *612:B1 0.000185403
6 *636:D *636:CLK 1.64343e-05
7 *636:D *151:12 0.000107431
*RES
1 *588:X *636:D 33.7116 
*END

*D_NET *67 0.000667754
*CONN
*I *637:D I *D sky130_fd_sc_hd__dfxtp_1
*I *589:Y O *D sky130_fd_sc_hd__nand2_1
*CAP
1 *637:D 0.000314239
2 *589:Y 0.000314239
3 *637:D *182:10 3.92757e-05
*RES
1 *589:Y *637:D 32.9973 
*END

*D_NET *68 0.000453022
*CONN
*I *638:D I *D sky130_fd_sc_hd__dfxtp_2
*I *596:X O *D sky130_fd_sc_hd__clkbuf_1
*CAP
1 *638:D 0.000153524
2 *596:X 0.000153524
3 *638:D *595:B 0
4 *638:D *178:12 0.000145973
*RES
1 *596:X *638:D 30.3366 
*END

*D_NET *69 0.000568572
*CONN
*I *639:D I *D sky130_fd_sc_hd__dfxtp_1
*I *599:Y O *D sky130_fd_sc_hd__a21oi_1
*CAP
1 *639:D 0.000234768
2 *599:Y 0.000234768
3 *639:D *173:29 9.90367e-05
4 *639:D *178:10 0
5 *639:D *181:45 0
*RES
1 *599:Y *639:D 31.35 
*END

*D_NET *70 0.000476247
*CONN
*I *640:D I *D sky130_fd_sc_hd__dfxtp_1
*I *603:X O *D sky130_fd_sc_hd__o21ba_1
*CAP
1 *640:D 0.000201478
2 *603:X 0.000201478
3 *640:D *640:CLK 7.32903e-05
4 *640:D *178:48 0
5 *640:D *178:65 0
*RES
1 *603:X *640:D 31.3545 
*END

*D_NET *71 0.00070198
*CONN
*I *641:D I *D sky130_fd_sc_hd__dfxtp_1
*I *607:X O *D sky130_fd_sc_hd__o21a_1
*CAP
1 *641:D 0.00035099
2 *607:X 0.00035099
3 *641:D *607:A2 0
4 *641:D *171:10 0
*RES
1 *607:X *641:D 33.408 
*END

*D_NET *72 0.000405803
*CONN
*I *642:D I *D sky130_fd_sc_hd__dfxtp_1
*I *610:X O *D sky130_fd_sc_hd__clkbuf_1
*CAP
1 *642:D 0.000202902
2 *610:X 0.000202902
3 *642:D *641:CLK 0
*RES
1 *610:X *642:D 30.7473 
*END

*D_NET *73 0.000257385
*CONN
*I *643:D I *D sky130_fd_sc_hd__dfxtp_1
*I *612:X O *D sky130_fd_sc_hd__a21o_1
*CAP
1 *643:D 5.03675e-05
2 *612:X 5.03675e-05
3 *643:D *612:B1 5.33978e-05
4 *643:D *100:25 0.000103253
*RES
1 *612:X *643:D 29.1045 
*END

*D_NET *74 0.000628114
*CONN
*I *644:D I *D sky130_fd_sc_hd__dfxtp_1
*I *614:Y O *D sky130_fd_sc_hd__nand3b_1
*CAP
1 *644:D 0.000168998
2 *614:Y 0.000168998
3 *644:D *586:C 4.76868e-05
4 *644:D *614:B 5.54817e-06
5 *644:D *177:10 5.36422e-05
6 *644:D *177:12 0.000173152
7 *644:D *177:18 1.00887e-05
*RES
1 *614:Y *644:D 31.3143 
*END

*D_NET *75 0.000356296
*CONN
*I *645:D I *D sky130_fd_sc_hd__dfxtp_1
*I *616:X O *D sky130_fd_sc_hd__a21bo_1
*CAP
1 *645:D 0.000169931
2 *616:X 0.000169931
3 *645:D *177:18 1.64343e-05
*RES
1 *616:X *645:D 29.9438 
*END

*D_NET *76 0.00385592
*CONN
*I *548:A I *D sky130_fd_sc_hd__nor2_1
*I *550:A2 I *D sky130_fd_sc_hd__a21oi_1
*I *551:C I *D sky130_fd_sc_hd__and3_1
*I *552:A2 I *D sky130_fd_sc_hd__a21o_1
*I *555:D I *D sky130_fd_sc_hd__and4_1
*I *549:A2 I *D sky130_fd_sc_hd__o21ai_1
*I *546:X O *D sky130_fd_sc_hd__and4_1
*CAP
1 *548:A 0.000266315
2 *550:A2 0
3 *551:C 0
4 *552:A2 9.11949e-05
5 *555:D 0.000169856
6 *549:A2 0
7 *546:X 1.645e-05
8 *76:42 0.000159295
9 *76:25 0.000325711
10 *76:23 0.000330059
11 *76:12 0.000534565
12 *76:6 0.000575026
13 *548:A *542:B 4.27935e-05
14 *548:A *547:A2 9.99644e-06
15 *548:A *548:B 2.50566e-05
16 *548:A *165:16 0.000142157
17 *548:A *166:18 2.41665e-05
18 *552:A2 *552:A1 5.6647e-05
19 *552:A2 *552:B1 0.000139331
20 *552:A2 *553:A_N 2.3339e-06
21 *552:A2 *167:53 4.17433e-05
22 *555:D *552:B1 2.71964e-05
23 *555:D *555:A 9.67041e-06
24 *555:D *555:B 2.85321e-05
25 *555:D *82:10 8.47008e-05
26 *555:D *138:63 2.53112e-06
27 *555:D *138:78 3.45384e-05
28 *555:D *167:38 9.5609e-06
29 *555:D *168:23 4.45753e-05
30 *555:D *181:22 6.13903e-05
31 *76:6 *542:B 9.90367e-05
32 *76:6 *165:16 9.90367e-05
33 *76:12 *519:C 0
34 *76:12 *519:D 0.000118775
35 *76:12 *549:B1 3.69697e-05
36 *76:12 *625:CLK 0
37 *76:12 *138:86 0
38 *76:12 *180:21 0
39 *76:23 *550:B1 1.13883e-05
40 *76:23 *625:CLK 8.19299e-05
41 *76:23 *138:78 2.61674e-05
42 *76:23 *167:12 8.63001e-06
43 *76:25 *138:78 3.52053e-05
44 *76:25 *167:38 3.10416e-05
45 *76:42 *553:A_N 1.75932e-05
46 *76:42 *556:A2 2.51343e-06
47 *625:D *76:23 3.22353e-05
*RES
1 *546:X *76:6 10.2464 
2 *76:6 *76:12 15.1964 
3 *76:12 *549:A2 9.3 
4 *76:12 *76:23 8.125 
5 *76:23 *76:25 1.64286 
6 *76:25 *555:D 17.925 
7 *76:25 *76:42 5.33036 
8 *76:42 *552:A2 11.6304 
9 *76:42 *551:C 9.3 
10 *76:23 *550:A2 13.8 
11 *76:6 *548:A 14.2643 
*END

*D_NET *77 0.000127709
*CONN
*I *548:B I *D sky130_fd_sc_hd__nor2_1
*I *547:Y O *D sky130_fd_sc_hd__o21ai_1
*CAP
1 *548:B 4.44756e-05
2 *547:Y 4.44756e-05
3 *548:B *547:A2 1.3701e-05
4 *548:A *548:B 2.50566e-05
*RES
1 *547:Y *548:B 19.5643 
*END

*D_NET *78 0.000101957
*CONN
*I *550:B1 I *D sky130_fd_sc_hd__a21oi_1
*I *549:Y O *D sky130_fd_sc_hd__o21ai_1
*CAP
1 *550:B1 1.03838e-05
2 *549:Y 1.03838e-05
3 *550:B1 *167:12 5.65955e-05
4 *625:D *550:B1 1.32056e-05
5 *76:23 *550:B1 1.13883e-05
*RES
1 *549:Y *550:B1 19.1357 
*END

*D_NET *79 0.00134713
*CONN
*I *556:A2 I *D sky130_fd_sc_hd__o21ai_1
*I *553:A_N I *D sky130_fd_sc_hd__and3b_1
*I *551:X O *D sky130_fd_sc_hd__and3_1
*CAP
1 *556:A2 0.000170313
2 *553:A_N 0.00024863
3 *551:X 0
4 *79:4 0.000418943
5 *553:A_N *552:B1 0.000269734
6 *553:A_N *553:C 2.11336e-05
7 *556:A2 *138:78 0.000101771
8 *556:A2 *181:22 9.41642e-05
9 *552:A2 *553:A_N 2.3339e-06
10 *76:42 *553:A_N 1.75932e-05
11 *76:42 *556:A2 2.51343e-06
*RES
1 *551:X *79:4 9.3 
2 *79:4 *553:A_N 13.9429 
3 *79:4 *556:A2 21.4071 
*END

*D_NET *80 0.00030425
*CONN
*I *553:C I *D sky130_fd_sc_hd__and3b_1
*I *552:X O *D sky130_fd_sc_hd__a21o_1
*CAP
1 *553:C 0.000139713
2 *552:X 0.000139713
3 *553:C *553:B 3.69047e-06
4 *553:A_N *553:C 2.11336e-05
*RES
1 *552:X *553:C 20.7786 
*END

*D_NET *81 0.000963637
*CONN
*I *554:A I *D sky130_fd_sc_hd__clkbuf_1
*I *553:X O *D sky130_fd_sc_hd__and3b_1
*CAP
1 *554:A 0.000223039
2 *553:X 0.000223039
3 *554:A *522:C 0.000308586
4 *554:A *553:B 5.49995e-05
5 *626:D *554:A 0.000100673
6 *658:A *554:A 5.33005e-05
*RES
1 *553:X *554:A 32.7429 
*END

*D_NET *82 0.00550411
*CONN
*I *557:A I *D sky130_fd_sc_hd__nor2_1
*I *560:C I *D sky130_fd_sc_hd__and3_1
*I *561:A2 I *D sky130_fd_sc_hd__a21o_1
*I *558:A2 I *D sky130_fd_sc_hd__o21ai_1
*I *564:D I *D sky130_fd_sc_hd__and4_1
*I *559:A2 I *D sky130_fd_sc_hd__a21oi_1
*I *555:X O *D sky130_fd_sc_hd__and4_1
*CAP
1 *557:A 0
2 *560:C 9.08732e-05
3 *561:A2 0
4 *558:A2 0.000252111
5 *564:D 0.000163762
6 *559:A2 0.000232119
7 *555:X 0.00015856
8 *82:47 9.08732e-05
9 *82:27 0.000415873
10 *82:14 0.00032068
11 *82:12 0.000225417
12 *82:10 0.000295416
13 *558:A2 *558:B1 0.000219887
14 *558:A2 *559:B1 9.90431e-05
15 *558:A2 *138:59 9.3111e-05
16 *558:A2 *179:8 0.000230482
17 *559:A2 *564:B 3.17148e-05